<?xml version="1.0" encoding="UTF-8"?>

<configuration>
<input>
	<net-file value="zhangjiang1.net.xml"/>
	<route-files value="zhangjiang.rou.xml"/>
</input>
<processing>
	<time-to-teleport value="-1"/>
</processing>
<report>
	<no-duration-log value="true"/>
	<no-step-log value="true"/>
</report>


<time>
	<begin value="0"/>
	<end value="10000"/>
</time>
</configuration>
