<?xml version="1.0" encoding="UTF-8"?>

<!-- generated on 12/23/18 19:23:23 by SUMO netconvert Version 0.19.0
<?xml version="1.0" encoding="UTF-8"?>

<configuration xmlns:xsi="http://www.w3.org/2001/XMLSchema-instance" xsi:noNamespaceSchemaLocation="http://sumo-sim.org/xsd/netconvertConfiguration.xsd">

    <input>
        <sumo-net-file value="zhangjiang.net.xml"/>
        <node-files value="tls-controlled-nodes.nod.xml"/>
    </input>

    <output>
        <output-file value="zhangjiang1.net.xml"/>
    </output>

    <processing>
        <no-turnarounds value="true"/>
        <offset.disable-normalization value="true"/>
    </processing>

</configuration>
-->

<net version="0.13" xmlns:xsi="http://www.w3.org/2001/XMLSchema-instance" xsi:noNamespaceSchemaLocation="http://sumo-sim.org/xsd/net_file.xsd">

    <location netOffset="-363726.23,-3451039.03" convBoundary="0.00,0.00,16095.88,5052.93" origBoundary="121.569545,31.186730,121.738555,31.231416" projParameter="+proj=utm +zone=51 +ellps=WGS84 +datum=WGS84 +units=m +no_defs"/>

    <edge id=":1018188351_0" function="internal">
        <lane id=":1018188351_0_0" index="0" speed="27.78" length="5.05" shape="2564.90,1616.54 2563.51,1616.61 2562.50,1617.11 2561.86,1618.05 2561.59,1619.41"/>
    </edge>
    <edge id=":1018188351_1" function="internal">
        <lane id=":1018188351_1_0" index="0" speed="27.78" length="10.52" shape="2565.20,1613.25 2562.18,1613.49 2560.16,1614.44 2558.15,1615.39 2555.13,1615.61"/>
    </edge>
    <edge id=":1018188351_2" function="internal">
        <lane id=":1018188351_2_0" index="0" speed="27.78" length="10.52" shape="2562.07,1609.62 2561.41,1612.58 2560.18,1614.44 2558.96,1616.30 2558.30,1619.26"/>
    </edge>
    <edge id=":1018188351_3" function="internal">
        <lane id=":1018188351_3_0" index="0" speed="27.78" length="5.06" shape="2558.77,1609.46 2558.51,1610.83 2557.86,1611.76 2556.84,1612.26 2555.45,1612.32"/>
    </edge>
    <edge id=":1024820120_0" function="internal">
        <lane id=":1024820120_0_0" index="0" speed="18.06" length="5.22" shape="2891.58,2195.13 2890.12,2195.07 2889.06,2195.50 2888.42,2196.45 2888.18,2197.89"/>
    </edge>
    <edge id=":1024820120_1" function="internal">
        <lane id=":1024820120_1_0" index="0" speed="13.89" length="10.79" shape="2891.58,2195.13 2888.54,2194.55 2886.28,2194.11 2884.02,2193.66 2880.99,2193.03"/>
    </edge>
    <edge id=":1024820120_2" function="internal">
        <lane id=":1024820120_2_0" index="0" speed="13.89" length="3.61" shape="2891.58,2195.13 2888.69,2194.15 2888.26,2193.80"/>
    </edge>
    <edge id=":1024820120_3" function="internal">
        <lane id=":1024820120_3_0" index="0" speed="13.89" length="2.41" shape="2891.58,2195.13 2890.52,2194.09 2890.27,2193.20"/>
    </edge>
    <edge id=":1024820120_16" function="internal">
        <lane id=":1024820120_16_0" index="0" speed="13.89" length="7.81" shape="2888.26,2193.80 2886.64,2192.48 2885.44,2190.12 2885.08,2187.07"/>
    </edge>
    <edge id=":1024820120_17" function="internal">
        <lane id=":1024820120_17_0" index="0" speed="13.89" length="2.41" shape="2890.27,2193.20 2890.83,2192.47 2892.20,2191.89"/>
    </edge>
    <edge id=":1024820120_4" function="internal">
        <lane id=":1024820120_4_0" index="0" speed="13.89" length="6.73" shape="2888.38,2187.13 2888.59,2188.93 2889.30,2190.33 2890.50,2191.31 2892.20,2191.89"/>
    </edge>
    <edge id=":1024820120_5" function="internal">
        <lane id=":1024820120_5_0" index="0" speed="18.06" length="10.77" shape="2888.38,2187.13 2888.32,2190.21 2888.28,2192.51 2888.24,2194.80 2888.18,2197.89"/>
    </edge>
    <edge id=":1024820120_6" function="internal">
        <lane id=":1024820120_6_0" index="0" speed="13.89" length="4.03" shape="2888.38,2187.13 2887.87,2190.27 2887.39,2190.96"/>
    </edge>
    <edge id=":1024820120_7" function="internal">
        <lane id=":1024820120_7_0" index="0" speed="13.89" length="2.41" shape="2888.38,2187.13 2887.53,2188.35 2886.70,2188.75"/>
    </edge>
    <edge id=":1024820120_18" function="internal">
        <lane id=":1024820120_18_0" index="0" speed="13.89" length="7.28" shape="2887.39,2190.96 2886.46,2192.30 2884.17,2193.22 2880.99,2193.03"/>
    </edge>
    <edge id=":1024820120_19" function="internal">
        <lane id=":1024820120_19_0" index="0" speed="13.89" length="2.41" shape="2886.70,2188.75 2885.88,2188.32 2885.08,2187.07"/>
    </edge>
    <edge id=":1024820120_8" function="internal">
        <lane id=":1024820120_8_0" index="0" speed="13.89" length="5.24" shape="2881.66,2189.80 2883.13,2189.89 2884.19,2189.46 2884.84,2188.52 2885.08,2187.07"/>
    </edge>
    <edge id=":1024820120_9" function="internal">
        <lane id=":1024820120_9_0" index="0" speed="13.89" length="10.74" shape="2881.66,2189.80 2884.68,2190.42 2886.92,2190.87 2889.17,2191.31 2892.20,2191.89"/>
    </edge>
    <edge id=":1024820120_10" function="internal">
        <lane id=":1024820120_10_0" index="0" speed="18.06" length="3.65" shape="2881.66,2189.80 2884.56,2190.82 2885.00,2191.19"/>
    </edge>
    <edge id=":1024820120_11" function="internal">
        <lane id=":1024820120_11_0" index="0" speed="13.89" length="2.41" shape="2881.66,2189.80 2882.71,2190.86 2882.94,2191.75"/>
    </edge>
    <edge id=":1024820120_20" function="internal">
        <lane id=":1024820120_20_0" index="0" speed="18.06" length="7.78" shape="2885.00,2191.19 2886.61,2192.51 2887.82,2194.87 2888.18,2197.89"/>
    </edge>
    <edge id=":1024820120_21" function="internal">
        <lane id=":1024820120_21_0" index="0" speed="13.89" length="2.41" shape="2882.94,2191.75 2882.37,2192.47 2880.99,2193.03"/>
    </edge>
    <edge id=":1024820120_12" function="internal">
        <lane id=":1024820120_12_0" index="0" speed="18.06" length="6.79" shape="2884.88,2197.83 2884.67,2196.04 2883.95,2194.64 2882.72,2193.64 2880.99,2193.03"/>
    </edge>
    <edge id=":1024820120_13" function="internal">
        <lane id=":1024820120_13_0" index="0" speed="18.06" length="10.77" shape="2884.88,2197.83 2884.94,2194.74 2884.98,2192.45 2885.02,2190.15 2885.08,2187.07"/>
    </edge>
    <edge id=":1024820120_14" function="internal">
        <lane id=":1024820120_14_0" index="0" speed="18.06" length="3.99" shape="2884.88,2197.83 2885.39,2194.72 2885.86,2194.03"/>
    </edge>
    <edge id=":1024820120_15" function="internal">
        <lane id=":1024820120_15_0" index="0" speed="22.22" length="2.41" shape="2884.88,2197.83 2885.73,2196.61 2886.56,2196.21"/>
    </edge>
    <edge id=":1024820120_22" function="internal">
        <lane id=":1024820120_22_0" index="0" speed="18.06" length="7.23" shape="2885.86,2194.03 2886.78,2192.69 2889.05,2191.75 2892.20,2191.89"/>
    </edge>
    <edge id=":1024820120_23" function="internal">
        <lane id=":1024820120_23_0" index="0" speed="22.22" length="2.41" shape="2886.56,2196.21 2887.38,2196.64 2888.18,2197.89"/>
    </edge>
    <edge id=":1024820127_0" function="internal">
        <lane id=":1024820127_0_0" index="0" speed="25.00" length="5.18" shape="2547.36,1943.15 2545.92,1943.07 2544.86,1943.50 2544.19,1944.43 2543.92,1945.85"/>
    </edge>
    <edge id=":1024820127_1" function="internal">
        <lane id=":1024820127_1_0" index="0" speed="22.22" length="10.52" shape="2547.36,1943.15 2544.37,1942.56 2542.20,1942.14 2540.04,1941.72 2537.04,1941.13"/>
    </edge>
    <edge id=":1024820127_2" function="internal">
        <lane id=":1024820127_2_0" index="0" speed="22.22" length="2.41" shape="2547.36,1943.15 2546.31,1942.10 2546.06,1941.21"/>
    </edge>
    <edge id=":1024820127_10" function="internal">
        <lane id=":1024820127_10_0" index="0" speed="22.22" length="2.41" shape="2546.06,1941.21 2546.62,1940.48 2548.00,1939.91"/>
    </edge>
    <edge id=":1024820127_3" function="internal">
        <lane id=":1024820127_3_0" index="0" speed="25.00" length="6.42" shape="2544.42,1935.35 2544.57,1937.07 2545.22,1938.40 2546.36,1939.35 2548.00,1939.91"/>
    </edge>
    <edge id=":1024820127_4" function="internal">
        <lane id=":1024820127_4_0" index="0" speed="27.78" length="10.52" shape="2544.42,1935.35 2544.27,1938.46 2544.17,1940.60 2544.07,1942.73 2543.92,1945.85"/>
        <lane id=":1024820127_4_1" index="1" speed="27.78" length="10.52" shape="2541.12,1935.19 2540.97,1938.31 2540.87,1940.44 2540.77,1942.57 2540.62,1945.69"/>
    </edge>
    <edge id=":1024820127_6" function="internal">
        <lane id=":1024820127_6_0" index="0" speed="25.00" length="3.33" shape="2541.12,1935.19 2540.75,1938.06 2540.58,1938.46"/>
    </edge>
    <edge id=":1024820127_11" function="internal">
        <lane id=":1024820127_11_0" index="0" speed="25.00" length="4.95" shape="2540.58,1938.46 2539.94,1940.01 2538.71,1941.04 2537.04,1941.13"/>
    </edge>
    <edge id=":1024820127_7" function="internal">
        <lane id=":1024820127_7_0" index="0" speed="22.22" length="10.52" shape="2537.67,1937.89 2540.67,1938.48 2542.84,1938.90 2545.00,1939.32 2548.00,1939.91"/>
    </edge>
    <edge id=":1024820127_8" function="internal">
        <lane id=":1024820127_8_0" index="0" speed="25.00" length="5.07" shape="2537.67,1937.89 2539.09,1938.62 2540.06,1940.16 2540.41,1941.79"/>
    </edge>
    <edge id=":1024820127_9" function="internal">
        <lane id=":1024820127_9_0" index="0" speed="22.22" length="2.41" shape="2537.67,1937.89 2538.73,1938.94 2538.98,1939.83"/>
    </edge>
    <edge id=":1024820127_12" function="internal">
        <lane id=":1024820127_12_0" index="0" speed="25.00" length="3.92" shape="2540.41,1941.79 2540.56,1942.52 2540.62,1945.69"/>
    </edge>
    <edge id=":1024820127_13" function="internal">
        <lane id=":1024820127_13_0" index="0" speed="22.22" length="2.41" shape="2538.98,1939.83 2538.41,1940.56 2537.04,1941.13"/>
    </edge>
    <edge id=":1024820137_0" function="internal">
        <lane id=":1024820137_0_0" index="0" speed="18.06" length="4.69" shape="2719.26,1977.44 2714.95,1975.59"/>
    </edge>
    <edge id=":1024820137_1" function="internal">
        <lane id=":1024820137_1_0" index="0" speed="13.89" length="7.10" shape="2719.26,1977.44 2717.86,1975.81 2717.48,1974.35 2718.13,1973.06 2719.80,1971.96"/>
    </edge>
    <edge id=":1024820137_2" function="internal">
        <lane id=":1024820137_2_0" index="0" speed="18.06" length="4.25" shape="2715.57,1972.35 2719.80,1971.96"/>
    </edge>
    <edge id=":1024820137_3" function="internal">
        <lane id=":1024820137_3_0" index="0" speed="22.22" length="2.41" shape="2715.57,1972.35 2716.63,1973.39 2716.88,1974.28"/>
    </edge>
    <edge id=":1024820137_4" function="internal">
        <lane id=":1024820137_4_0" index="0" speed="22.22" length="2.41" shape="2716.88,1974.28 2716.32,1975.01 2714.95,1975.59"/>
    </edge>
    <edge id=":1024820146_0" function="internal">
        <lane id=":1024820146_0_0" index="0" speed="13.89" length="8.64" shape="2727.06,1972.54 2727.08,1963.90"/>
    </edge>
    <edge id=":1024820146_1" function="internal">
        <lane id=":1024820146_1_0" index="0" speed="13.89" length="6.03" shape="2727.06,1972.54 2727.41,1970.55 2728.63,1968.95 2730.37,1967.95"/>
    </edge>
    <edge id=":1024820146_2" function="internal">
        <lane id=":1024820146_2_0" index="0" speed="13.89" length="2.41" shape="2727.06,1972.54 2727.84,1971.27 2728.65,1970.83"/>
    </edge>
    <edge id=":1024820146_9" function="internal">
        <lane id=":1024820146_9_0" index="0" speed="13.89" length="3.45" shape="2730.37,1967.95 2730.71,1967.75 2733.66,1966.95"/>
    </edge>
    <edge id=":1024820146_10" function="internal">
        <lane id=":1024820146_10_0" index="0" speed="13.89" length="2.41" shape="2728.65,1970.83 2729.49,1971.21 2730.36,1972.42"/>
    </edge>
    <edge id=":1024820146_3" function="internal">
        <lane id=":1024820146_3_0" index="0" speed="13.89" length="5.29" shape="2730.38,1964.06 2730.52,1965.56 2731.11,1966.54 2732.16,1967.00 2733.66,1966.95"/>
    </edge>
    <edge id=":1024820146_4" function="internal">
        <lane id=":1024820146_4_0" index="0" speed="13.89" length="8.35" shape="2730.38,1964.06 2730.36,1972.42"/>
    </edge>
    <edge id=":1024820146_5" function="internal">
        <lane id=":1024820146_5_0" index="0" speed="13.89" length="2.41" shape="2730.38,1964.06 2729.49,1965.26 2728.65,1965.63"/>
    </edge>
    <edge id=":1024820146_11" function="internal">
        <lane id=":1024820146_11_0" index="0" speed="13.89" length="2.41" shape="2728.65,1965.63 2727.84,1965.18 2727.08,1963.90"/>
    </edge>
    <edge id=":1024820146_6" function="internal">
        <lane id=":1024820146_6_0" index="0" speed="13.89" length="7.77" shape="2723.37,1970.29 2724.91,1969.28 2726.04,1967.88 2726.76,1966.09 2727.08,1963.90"/>
    </edge>
    <edge id=":1024820146_7" function="internal">
        <lane id=":1024820146_7_0" index="0" speed="13.89" length="10.87" shape="2723.37,1970.29 2726.20,1969.00 2728.37,1968.16 2730.61,1967.55 2733.66,1966.95"/>
    </edge>
    <edge id=":1024820146_8" function="internal">
        <lane id=":1024820146_8_0" index="0" speed="13.89" length="3.88" shape="2723.37,1970.29 2726.36,1969.23 2727.07,1969.23"/>
    </edge>
    <edge id=":1024820146_12" function="internal">
        <lane id=":1024820146_12_0" index="0" speed="13.89" length="5.34" shape="2727.07,1969.23 2728.51,1969.23 2729.85,1970.29 2730.36,1972.42"/>
    </edge>
    <edge id=":1024820155_0" function="internal">
        <lane id=":1024820155_0_0" index="0" speed="13.89" length="5.75" shape="2730.04,2106.66 2729.64,2105.00 2728.86,2104.13 2727.70,2104.08 2726.16,2104.82"/>
    </edge>
    <edge id=":1024820155_1" function="internal">
        <lane id=":1024820155_1_0" index="0" speed="13.89" length="10.30" shape="2730.04,2106.66 2729.72,2103.66 2729.50,2101.54 2729.37,2099.40 2729.30,2096.39"/>
    </edge>
    <edge id=":1024820155_2" function="internal">
        <lane id=":1024820155_2_0" index="0" speed="13.89" length="2.40" shape="2730.04,2106.66 2730.74,2105.35 2731.51,2104.86"/>
    </edge>
    <edge id=":1024820155_9" function="internal">
        <lane id=":1024820155_9_0" index="0" speed="13.89" length="2.40" shape="2731.51,2104.86 2732.37,2105.19 2733.32,2106.33"/>
    </edge>
    <edge id=":1024820155_3" function="internal">
        <lane id=":1024820155_3_0" index="0" speed="13.89" length="10.02" shape="2732.60,2096.35 2732.67,2099.32 2732.79,2101.35 2733.00,2103.38 2733.32,2106.33"/>
    </edge>
    <edge id=":1024820155_4" function="internal">
        <lane id=":1024820155_4_0" index="0" speed="13.89" length="6.67" shape="2732.60,2096.35 2732.22,2098.44 2731.02,2100.55 2729.56,2102.09"/>
    </edge>
    <edge id=":1024820155_5" function="internal">
        <lane id=":1024820155_5_0" index="0" speed="13.89" length="2.41" shape="2732.60,2096.35 2731.79,2097.59 2730.97,2098.02"/>
    </edge>
    <edge id=":1024820155_10" function="internal">
        <lane id=":1024820155_10_0" index="0" speed="13.89" length="4.37" shape="2729.56,2102.09 2729.00,2102.68 2726.16,2104.82"/>
    </edge>
    <edge id=":1024820155_11" function="internal">
        <lane id=":1024820155_11_0" index="0" speed="13.89" length="2.41" shape="2730.97,2098.02 2730.14,2097.62 2729.30,2096.39"/>
    </edge>
    <edge id=":1024820155_6" function="internal">
        <lane id=":1024820155_6_0" index="0" speed="13.89" length="7.78" shape="2724.34,2102.07 2726.52,2100.48 2728.07,2099.00 2729.00,2097.64 2729.30,2096.39"/>
    </edge>
    <edge id=":1024820155_7" function="internal">
        <lane id=":1024820155_7_0" index="0" speed="13.89" length="5.50" shape="2724.34,2102.07 2727.91,2100.34 2729.43,2100.42"/>
    </edge>
    <edge id=":1024820155_8" function="internal">
        <lane id=":1024820155_8_0" index="0" speed="13.89" length="2.41" shape="2724.34,2102.07 2725.83,2102.08 2726.63,2102.54"/>
    </edge>
    <edge id=":1024820155_12" function="internal">
        <lane id=":1024820155_12_0" index="0" speed="13.89" length="7.82" shape="2729.43,2100.42 2730.59,2100.48 2732.40,2102.47 2733.32,2106.33"/>
    </edge>
    <edge id=":1024820155_13" function="internal">
        <lane id=":1024820155_13_0" index="0" speed="13.89" length="2.41" shape="2726.63,2102.54 2726.74,2103.45 2726.16,2104.82"/>
    </edge>
    <edge id=":1024828118_0" function="internal">
        <lane id=":1024828118_0_0" index="0" speed="25.00" length="5.05" shape="3315.20,2434.85 3315.06,2436.23 3315.40,2437.31 3316.23,2438.09 3317.54,2438.56"/>
    </edge>
    <edge id=":1024828118_1" function="internal">
        <lane id=":1024828118_1_0" index="0" speed="22.22" length="7.51" shape="3315.20,2434.85 3313.34,2442.13"/>
    </edge>
    <edge id=":1024828118_2" function="internal">
        <lane id=":1024828118_2_0" index="0" speed="22.22" length="2.41" shape="3315.20,2434.85 3314.10,2435.85 3313.20,2436.05"/>
    </edge>
    <edge id=":1024828118_10" function="internal">
        <lane id=":1024828118_10_0" index="0" speed="22.22" length="2.41" shape="3313.20,2436.05 3312.50,2435.45 3312.00,2434.05"/>
    </edge>
    <edge id=":1024828118_3" function="internal">
        <lane id=":1024828118_3_0" index="0" speed="25.00" length="5.51" shape="3307.84,2436.62 3309.36,2436.70 3310.56,2436.30 3311.44,2435.42 3312.00,2434.05"/>
    </edge>
    <edge id=":1024828118_4" function="internal">
        <lane id=":1024828118_4_0" index="0" speed="27.78" length="9.87" shape="3307.84,2436.62 3317.54,2438.56"/>
        <lane id=":1024828118_4_1" index="1" speed="27.78" length="9.87" shape="3307.21,2439.86 3316.87,2441.80"/>
    </edge>
    <edge id=":1024828118_6" function="internal">
        <lane id=":1024828118_6_0" index="0" speed="25.00" length="3.19" shape="3307.21,2439.86 3310.00,2440.47 3310.32,2440.56"/>
    </edge>
    <edge id=":1024828118_11" function="internal">
        <lane id=":1024828118_11_0" index="0" speed="25.00" length="3.54" shape="3310.32,2440.56 3311.95,2441.05 3313.06,2441.60 3313.34,2442.13"/>
    </edge>
    <edge id=":1024828118_7" function="internal">
        <lane id=":1024828118_7_0" index="0" speed="22.22" length="9.64" shape="3309.59,2443.39 3312.00,2434.05"/>
    </edge>
    <edge id=":1024828118_8" function="internal">
        <lane id=":1024828118_8_0" index="0" speed="25.00" length="4.75" shape="3309.59,2443.39 3310.34,2442.19 3311.80,2441.52 3313.52,2441.42"/>
    </edge>
    <edge id=":1024828118_9" function="internal">
        <lane id=":1024828118_9_0" index="0" speed="22.22" length="2.89" shape="3309.59,2443.39 3310.06,2441.66 3310.84,2440.88"/>
    </edge>
    <edge id=":1024828118_12" function="internal">
        <lane id=":1024828118_12_0" index="0" speed="25.00" length="3.37" shape="3313.52,2441.42 3313.98,2441.39 3316.87,2441.80"/>
    </edge>
    <edge id=":1024828118_13" function="internal">
        <lane id=":1024828118_13_0" index="0" speed="22.22" length="2.89" shape="3310.84,2440.88 3311.93,2441.04 3313.34,2442.13"/>
    </edge>
    <edge id=":1024828151_0" function="internal">
        <lane id=":1024828151_0_0" index="0" speed="22.22" length="0.10" shape="3494.78,2084.11 3494.79,2084.10"/>
    </edge>
    <edge id=":1024828151_1" function="internal">
        <lane id=":1024828151_1_0" index="0" speed="22.22" length="2.41" shape="3494.78,2084.11 3493.40,2084.66 3492.49,2084.52"/>
    </edge>
    <edge id=":1024828151_4" function="internal">
        <lane id=":1024828151_4_0" index="0" speed="22.22" length="2.41" shape="3492.49,2084.52 3492.05,2083.71 3492.08,2082.23"/>
    </edge>
    <edge id=":1024828151_2" function="internal">
        <lane id=":1024828151_2_0" index="0" speed="22.22" length="0.10" shape="3492.07,2082.23 3492.08,2082.23"/>
    </edge>
    <edge id=":1024828151_3" function="internal">
        <lane id=":1024828151_3_0" index="0" speed="22.22" length="2.41" shape="3492.07,2082.23 3493.46,2081.68 3494.37,2081.81"/>
    </edge>
    <edge id=":1024828151_5" function="internal">
        <lane id=":1024828151_5_0" index="0" speed="22.22" length="2.41" shape="3494.37,2081.81 3494.81,2082.62 3494.79,2084.10"/>
    </edge>
    <edge id=":1026393029_0" function="internal">
        <lane id=":1026393029_0_0" index="0" speed="22.22" length="10.50" shape="2533.82,1940.50 2530.83,1939.92 2528.66,1939.50 2526.50,1939.08 2523.51,1938.49"/>
    </edge>
    <edge id=":1026393029_1" function="internal">
        <lane id=":1026393029_1_0" index="0" speed="25.00" length="5.07" shape="2533.82,1940.50 2532.40,1939.78 2531.44,1938.24 2531.10,1936.61"/>
    </edge>
    <edge id=":1026393029_2" function="internal">
        <lane id=":1026393029_2_0" index="0" speed="22.22" length="2.41" shape="2533.82,1940.50 2532.76,1939.46 2532.51,1938.57"/>
    </edge>
    <edge id=":1026393029_10" function="internal">
        <lane id=":1026393029_10_0" index="0" speed="25.00" length="3.91" shape="2531.10,1936.61 2530.94,1935.88 2530.89,1932.72"/>
    </edge>
    <edge id=":1026393029_11" function="internal">
        <lane id=":1026393029_11_0" index="0" speed="22.22" length="2.41" shape="2532.51,1938.57 2533.08,1937.84 2534.45,1937.27"/>
    </edge>
    <edge id=":1026393029_3" function="internal">
        <lane id=":1026393029_3_0" index="0" speed="25.00" length="5.18" shape="2524.14,1935.25 2525.59,1935.32 2526.65,1934.90 2527.32,1933.97 2527.59,1932.55"/>
    </edge>
    <edge id=":1026393029_4" function="internal">
        <lane id=":1026393029_4_0" index="0" speed="22.22" length="10.50" shape="2524.14,1935.25 2527.13,1935.84 2529.30,1936.26 2531.46,1936.68 2534.45,1937.27"/>
    </edge>
    <edge id=":1026393029_5" function="internal">
        <lane id=":1026393029_5_0" index="0" speed="22.22" length="2.41" shape="2524.14,1935.25 2525.20,1936.30 2525.44,1937.19"/>
    </edge>
    <edge id=":1026393029_12" function="internal">
        <lane id=":1026393029_12_0" index="0" speed="22.22" length="2.41" shape="2525.44,1937.19 2524.88,1937.92 2523.51,1938.49"/>
    </edge>
    <edge id=":1026393029_6" function="internal">
        <lane id=":1026393029_6_0" index="0" speed="25.00" length="6.40" shape="2527.07,1943.04 2526.92,1941.33 2526.28,1940.00 2525.14,1939.05 2523.51,1938.49"/>
    </edge>
    <edge id=":1026393029_7" function="internal">
        <lane id=":1026393029_7_0" index="0" speed="27.78" length="10.50" shape="2527.07,1943.04 2527.23,1939.93 2527.33,1937.80 2527.44,1935.67 2527.59,1932.55"/>
        <lane id=":1026393029_7_1" index="1" speed="27.78" length="10.50" shape="2530.37,1943.21 2530.52,1940.09 2530.63,1937.96 2530.73,1935.83 2530.89,1932.72"/>
    </edge>
    <edge id=":1026393029_9" function="internal">
        <lane id=":1026393029_9_0" index="0" speed="25.00" length="3.33" shape="2530.37,1943.21 2530.75,1940.33 2530.91,1939.94"/>
    </edge>
    <edge id=":1026393029_13" function="internal">
        <lane id=":1026393029_13_0" index="0" speed="25.00" length="4.95" shape="2530.91,1939.94 2531.55,1938.39 2532.79,1937.36 2534.45,1937.27"/>
    </edge>
    <edge id=":1026393047_0" function="internal">
        <lane id=":1026393047_0_0" index="0" speed="27.78" length="10.45" shape="2550.07,1615.11 2547.17,1614.30 2545.39,1612.98 2543.62,1611.65 2540.72,1610.82"/>
    </edge>
    <edge id=":1026393047_1" function="internal">
        <lane id=":1026393047_1_0" index="0" speed="27.78" length="5.32" shape="2550.39,1611.82 2548.99,1611.48 2548.02,1610.76 2547.48,1609.68 2547.37,1608.22"/>
    </edge>
    <edge id=":1026393047_2" function="internal">
        <lane id=":1026393047_2_0" index="0" speed="27.78" length="5.36" shape="2543.43,1617.72 2543.32,1616.27 2542.77,1615.19 2541.79,1614.46 2540.36,1614.10"/>
    </edge>
    <edge id=":1026393047_3" function="internal">
        <lane id=":1026393047_3_0" index="0" speed="27.78" length="10.45" shape="2546.72,1617.94 2546.40,1614.95 2545.40,1612.97 2544.40,1611.00 2544.08,1608.00"/>
    </edge>
    <edge id=":1026393082_0" function="internal">
        <lane id=":1026393082_0_0" index="0" speed="22.22" length="5.26" shape="2860.75,3162.45 2859.27,3162.31 2858.20,3162.71 2857.53,3163.63 2857.26,3165.09"/>
    </edge>
    <edge id=":1026393082_1" function="internal">
        <lane id=":1026393082_1_0" index="0" speed="22.22" length="10.92" shape="2860.75,3162.45 2857.73,3161.72 2855.45,3161.17 2853.17,3160.62 2850.14,3159.89"/>
    </edge>
    <edge id=":1026393082_2" function="internal">
        <lane id=":1026393082_2_0" index="0" speed="22.22" length="3.69" shape="2860.75,3162.45 2857.87,3161.32 2857.42,3160.93"/>
    </edge>
    <edge id=":1026393082_3" function="internal">
        <lane id=":1026393082_3_0" index="0" speed="22.22" length="2.41" shape="2860.75,3162.45 2859.74,3161.36 2859.54,3160.46"/>
    </edge>
    <edge id=":1026393082_16" function="internal">
        <lane id=":1026393082_16_0" index="0" speed="22.22" length="7.87" shape="2857.42,3160.93 2855.85,3159.55 2854.70,3157.12 2854.41,3154.05"/>
    </edge>
    <edge id=":1026393082_17" function="internal">
        <lane id=":1026393082_17_0" index="0" speed="22.22" length="2.41" shape="2859.54,3160.46 2860.13,3159.76 2861.53,3159.25"/>
    </edge>
    <edge id=":1026393082_4" function="internal">
        <lane id=":1026393082_4_0" index="0" speed="22.22" length="6.95" shape="2857.71,3154.20 2857.88,3156.04 2858.57,3157.50 2859.79,3158.57 2861.53,3159.25"/>
    </edge>
    <edge id=":1026393082_5" function="internal">
        <lane id=":1026393082_5_0" index="0" speed="22.22" length="10.91" shape="2857.71,3154.20 2857.57,3157.30 2857.47,3159.64 2857.38,3161.99 2857.26,3165.09"/>
    </edge>
    <edge id=":1026393082_6" function="internal">
        <lane id=":1026393082_6_0" index="0" speed="22.22" length="4.08" shape="2857.71,3154.20 2857.11,3157.34 2856.59,3158.05"/>
    </edge>
    <edge id=":1026393082_7" function="internal">
        <lane id=":1026393082_7_0" index="0" speed="22.22" length="2.41" shape="2857.71,3154.20 2856.83,3155.40 2855.99,3155.77"/>
    </edge>
    <edge id=":1026393082_18" function="internal">
        <lane id=":1026393082_18_0" index="0" speed="22.22" length="7.27" shape="2856.59,3158.05 2855.65,3159.34 2853.33,3160.19 2850.14,3159.89"/>
    </edge>
    <edge id=":1026393082_19" function="internal">
        <lane id=":1026393082_19_0" index="0" speed="22.22" length="2.41" shape="2855.99,3155.77 2855.18,3155.32 2854.41,3154.05"/>
    </edge>
    <edge id=":1026393082_8" function="internal">
        <lane id=":1026393082_8_0" index="0" speed="22.22" length="5.25" shape="2850.92,3156.68 2852.39,3156.82 2853.46,3156.43 2854.14,3155.50 2854.41,3154.05"/>
    </edge>
    <edge id=":1026393082_9" function="internal">
        <lane id=":1026393082_9_0" index="0" speed="22.22" length="10.92" shape="2850.92,3156.68 2853.94,3157.41 2856.22,3157.96 2858.50,3158.51 2861.53,3159.25"/>
    </edge>
    <edge id=":1026393082_10" function="internal">
        <lane id=":1026393082_10_0" index="0" speed="22.22" length="3.68" shape="2850.92,3156.68 2853.79,3157.80 2854.23,3158.19"/>
    </edge>
    <edge id=":1026393082_11" function="internal">
        <lane id=":1026393082_11_0" index="0" speed="22.22" length="2.41" shape="2850.92,3156.68 2851.93,3157.77 2852.13,3158.67"/>
    </edge>
    <edge id=":1026393082_20" function="internal">
        <lane id=":1026393082_20_0" index="0" speed="22.22" length="7.89" shape="2854.23,3158.19 2855.80,3159.58 2856.96,3162.01 2857.26,3165.09"/>
    </edge>
    <edge id=":1026393082_21" function="internal">
        <lane id=":1026393082_21_0" index="0" speed="22.22" length="2.41" shape="2852.13,3158.67 2851.54,3159.38 2850.14,3159.89"/>
    </edge>
    <edge id=":1026393082_12" function="internal">
        <lane id=":1026393082_12_0" index="0" speed="22.22" length="6.97" shape="2853.96,3164.97 2853.78,3163.11 2853.09,3161.64 2851.87,3160.57 2850.14,3159.89"/>
    </edge>
    <edge id=":1026393082_13" function="internal">
        <lane id=":1026393082_13_0" index="0" speed="22.22" length="10.93" shape="2853.96,3164.97 2854.08,3161.86 2854.18,3159.51 2854.28,3157.16 2854.41,3154.05"/>
    </edge>
    <edge id=":1026393082_14" function="internal">
        <lane id=":1026393082_14_0" index="0" speed="22.22" length="4.11" shape="2853.96,3164.97 2854.54,3161.80 2855.07,3161.08"/>
    </edge>
    <edge id=":1026393082_15" function="internal">
        <lane id=":1026393082_15_0" index="0" speed="22.22" length="2.41" shape="2853.96,3164.97 2854.84,3163.76 2855.68,3163.38"/>
    </edge>
    <edge id=":1026393082_22" function="internal">
        <lane id=":1026393082_22_0" index="0" speed="22.22" length="7.28" shape="2855.07,3161.08 2856.00,3159.79 2858.33,3158.94 2861.53,3159.25"/>
    </edge>
    <edge id=":1026393082_23" function="internal">
        <lane id=":1026393082_23_0" index="0" speed="22.22" length="2.41" shape="2855.68,3163.38 2856.48,3163.83 2857.26,3165.09"/>
    </edge>
    <edge id=":1026393095_0" function="internal">
        <lane id=":1026393095_0_0" index="0" speed="22.22" length="9.51" shape="3109.80,3222.81 3100.56,3220.57"/>
    </edge>
    <edge id=":1026393095_1" function="internal">
        <lane id=":1026393095_1_0" index="0" speed="22.22" length="7.15" shape="3109.80,3222.81 3107.14,3221.74 3105.47,3220.09 3104.92,3218.23"/>
    </edge>
    <edge id=":1026393095_2" function="internal">
        <lane id=":1026393095_2_0" index="0" speed="22.22" length="2.41" shape="3109.80,3222.81 3108.79,3221.71 3108.58,3220.81"/>
    </edge>
    <edge id=":1026393095_9" function="internal">